          74
  Built with Packmol                                             
  N            6.205692        8.881720       15.575781
  C            6.092777        8.873285       14.096694
  C            5.851602        7.531709       16.075646
  C            5.242396        9.874554       16.108798
  H            6.575005        6.768071       15.712252
  H            4.835913        7.232051       15.731838
  H            5.830246        7.496213       17.185144
  H            6.788221        8.130631       13.644365
  H            6.335495        9.872240       13.668969
  H            5.061406        8.609753       13.769808
  H            5.498968       10.902996       15.769712
  H            5.215095        9.866739       17.218687
  H            4.206859        9.649872       15.766967
  C            7.614372        9.243168       15.926835
  H            8.314678        8.506788       15.468792
  C            7.934716        9.302768       17.433758
  H            7.863093       10.240587       15.495776
  H            7.765640        8.309782       17.900858
  H            7.306633       10.072492       17.929419
  O            9.281675        9.651035       17.596486
  H            9.447160        9.671016       18.575035
  N            3.294679       14.680574       16.449911
  C            3.191541       14.439204       17.909918
  C            2.808357       13.470843       15.744348
  C            4.721429       14.906986       16.116912
  H            1.730516       13.290948       15.955075
  H            3.375059       12.567202       16.063575
  H            2.942972       13.553385       14.645364
  H            2.137179       14.248216       18.212607
  H            3.559190       15.315890       18.489596
  H            3.794719       13.555609       18.218896
  H            5.107451       15.824980       16.613677
  H            4.877669       15.007278       15.022292
  H            5.349742       14.049187       16.447167
  C            2.459754       15.877976       16.122211
  H            1.404711       15.694240       16.431427
  C            2.435686       16.291420       14.637126
  H            2.821354       16.756850       16.704744
  H            2.019129       15.469667       14.017456
  H            3.459451       16.550188       14.294217
  O            1.617198       17.419190       14.494713
  H            1.623339       17.646650       13.528500
  N           12.863699        5.832933       12.448343
  C           11.593986        5.973578       13.162822
  C           10.462295        5.962164       12.153433
  O            9.293912        6.135691       12.564340
  O           10.800006        5.779824       10.963327
  N           16.415363        5.079894       12.975270
  C           15.245050        5.488529       12.185478
  C           14.039150        5.597127       13.096748
  O           14.123752        5.486083       14.296555
  H           12.883529        5.930501       11.433193
  H           11.448176        5.124804       13.870452
  H           11.581051        6.937749       13.721521
  H           16.267935        4.134633       13.370234
  H           16.507600        5.691183       13.805992
  H           15.438579        6.480896       11.716468
  H           15.053958        4.732633       11.389084
  N           13.148220       11.253726       14.002579
  C           12.463160        9.972448       13.825238
  C           10.970076       10.192961       13.972885
  O           10.211509        9.200198       13.917444
  O           10.612347       11.378521       14.146447
  N           16.383140       12.904411       13.483377
  C           14.999970       12.812132       13.971959
  C           14.471346       11.414861       13.717811
  O           15.173012       10.524369       13.301022
  H           12.632024       12.054229       14.367517
  H           12.663180        9.560222       12.809129
  H           12.808455        9.250307       14.600623
  H           16.409822       12.769550       12.457535
  H           16.939940       12.115895       13.858209
  H           14.975847       13.017838       15.067094
  H           14.368912       13.560902       13.439750
